ZINC03581099
     RDKit          3D

 14 14  0  0  0  0  0  0  0  0999 V2000
    4.7437   -0.0182    0.1265 C   0  0  0  0  0  0  0  0  0  0  0  0
    3.3438   -0.5919   -0.0454 C   0  0  0  0  0  0  0  0  0  0  0  0
    3.2164   -1.7763   -0.3447 O   0  0  0  0  0  0  0  0  0  0  0  0
    2.3372    0.2755    0.1307 N   0  0  0  0  0  0  0  0  0  0  0  0
    0.9346    0.0789    0.0748 C   0  0  0  0  0  0  0  0  0  0  0  0
    0.3005   -1.1830    0.1453 C   0  0  0  0  0  0  0  0  0  0  0  0
   -1.1071   -1.2615    0.1481 C   0  0  0  0  0  0  0  0  0  0  0  0
   -1.8940   -0.0900    0.0923 C   0  0  0  0  0  0  0  0  0  0  0  0
   -1.2551    1.1652    0.0276 C   0  0  0  0  0  0  0  0  0  0  0  0
    0.1488    1.2510    0.0083 C   0  0  0  0  0  0  0  0  0  0  0  0
    0.7386    2.4560   -0.0983 N   0  0  0  0  0  0  0  0  0  0  0  0
   -3.3949   -0.1719    0.0972 C   0  0  0  0  0  0  0  0  0  0  0  0
   -3.9353   -1.2979    0.1653 O   0  0  0  0  0  0  0  0  0  0  0  0
   -4.0513    0.8918    0.0301 O   0  0  0  0  0  0  0  0  0  0  0  0
  1  2  1  0
  2  3  2  0
  2  4  1  0
  4  5  1  0
  5 10  4  0
  5  6  4  0
  6  7  4  0
  7  8  4  0
  8  9  4  0
  8 12  1  0
  9 10  4  0
 10 11  1  0
 12 13  2  0
 12 14  1  0
M  CHG  1  14  -1
M  END
> <Cluster>
1

> <MCS_ATOMS>
0 1 3 4

> <MCS_COUNTS>
1 4 3

> <MCS_SMARTS>
[#6]-[#6]-[#7]-[#6]

> <MCS_SMILES>
CCNc

> <MODEL.CCRATIO>
1

> <MODEL.SOURCE>
CORINA 3.44 0027  09.01.2008

> <b_mmffld_Minimization_Converged-OPLS_2005>
1

> <id>
ZINC03581099

> <r_mmffld_Potential_Energy-OPLS_2005>
-34.241

> <r_mmffld_RMS_Derivative-OPLS_2005>
6.13019e-05

> <source>
na_clustered_3D_MM.sdf

$$$$
